data/open_dss/uhs8_1247/uhs8_1247--udt7252/Loads_scenario_50.dss
New Load.load_p1ulv3569 conn=wye bus1=p1ulv3569.1.2.3 kV=0.48 Vminpu=0.8 Vmaxpu=1.2 model=1 kW=34.6603 kvar=7.038074095172779 Phases=3

New Load.load_p1ulv3570 conn=wye bus1=p1ulv3570.1.2.3 kV=0.48 Vminpu=0.8 Vmaxpu=1.2 model=1 kW=38.970400000000005 kvar=7.913277228371401 Phases=3

New Load.load_p1ulv3571 conn=wye bus1=p1ulv3571.1.2 kV=0.2080002494301389 Vminpu=0.8 Vmaxpu=1.2 model=1 kW=12.05 kvar=0.9191546616517607 Phases=2

New Load.load_p1ulv3576 conn=wye bus1=p1ulv3576.1.2.3 kV=0.48 Vminpu=0.8 Vmaxpu=1.2 model=1 kW=35.2504 kvar=7.157899010812905 Phases=3

New Load.load_p1ulv3577 conn=wye bus1=p1ulv3577.1.2.3 kV=0.48 Vminpu=0.8 Vmaxpu=1.2 model=1 kW=40.6804 kvar=8.260507538055549 Phases=3

New Load.load_p1ulv7253 conn=wye bus1=p1ulv7253.1.2 kV=0.2080002494301389 Vminpu=0.8 Vmaxpu=1.2 model=1 kW=11.62 kvar=0.8409115972996914 Phases=2

New Load.load_p1ulv7254 conn=wye bus1=p1ulv7254.1.2 kV=0.2080002494301389 Vminpu=0.8 Vmaxpu=1.2 model=1 kW=13.7401 kvar=1.270359572425928 Phases=2

New Load.load_p1ulv7255 conn=wye bus1=p1ulv7255.1.2 kV=0.2080002494301389 Vminpu=0.8 Vmaxpu=1.2 model=1 kW=12.1301 kvar=0.9401717516684716 Phases=2

New Load.load_p1ulv7256 conn=wye bus1=p1ulv7256.1.2 kV=0.2080002494301389 Vminpu=0.8 Vmaxpu=1.2 model=1 kW=12.8201 kvar=1.0802822275059345 Phases=2

New Load.load_p1ulv7257 conn=wye bus1=p1ulv7257.1.2 kV=0.2080002494301389 Vminpu=0.8 Vmaxpu=1.2 model=1 kW=11.85 kvar=0.8810345938741143 Phases=2

New Load.load_p1ulv7259 conn=wye bus1=p1ulv7259.1.2 kV=0.2080002494301389 Vminpu=0.8 Vmaxpu=1.2 model=1 kW=2.86003 kvar=0.5807538611730713 Phases=2

New Load.load_p1ulv7260 conn=wye bus1=p1ulv7260.1.2 kV=0.2080002494301389 Vminpu=0.8 Vmaxpu=1.2 model=1 kW=1.38001 kvar=0.28022298226153225 Phases=2

New Load.load_p1ulv7261 conn=wye bus1=p1ulv7261.1.2 kV=0.2080002494301389 Vminpu=0.8 Vmaxpu=1.2 model=1 kW=5.79006 kvar=1.1787479841412536 Phases=2

New Load.load_p1ulv7263 conn=wye bus1=p1ulv7263.1.2 kV=0.2080002494301389 Vminpu=0.8 Vmaxpu=1.2 model=1 kW=1.93002 kvar=0.38988294196352385 Phases=2

New Load.load_p1ulv7264 conn=wye bus1=p1ulv7264.1.2 kV=0.2080002494301389 Vminpu=0.8 Vmaxpu=1.2 model=1 kW=4.840050000000001 kvar=0.9802786838926555 Phases=2

New Load.load_p1ulv7265 conn=wye bus1=p1ulv7265.1.2 kV=0.2080002494301389 Vminpu=0.8 Vmaxpu=1.2 model=1 kW=1.7300200000000001 kvar=0.350389299430372 Phases=2

New Load.load_p1ulv7266 conn=wye bus1=p1ulv7266.1.2 kV=0.2080002494301389 Vminpu=0.8 Vmaxpu=1.2 model=1 kW=3.55004 kvar=0.7208663675971405 Phases=2

New Load.load_p1ulv7267 conn=wye bus1=p1ulv7267.1.2 kV=0.2080002494301389 Vminpu=0.8 Vmaxpu=1.2 model=1 kW=13.4801 kvar=1.2111704107187142 Phases=2

New Load.load_p1ulv7387 conn=wye bus1=p1ulv7387.1.2.3 kV=0.48 Vminpu=0.8 Vmaxpu=1.2 model=1 kW=106.301 kvar=21.585338684055287 Phases=3

New Load.load_p1ulv7701 conn=wye bus1=p1ulv7701.1.2.3 kV=0.48 Vminpu=0.8 Vmaxpu=1.2 model=1 kW=27.070299999999996 kvar=5.496858860960686 Phases=3

New Load.load_p1ulv8051 conn=wye bus1=p1ulv8051.1.2 kV=0.2080002494301389 Vminpu=0.8 Vmaxpu=1.2 model=1 kW=4.78005 kvar=0.9706305507635722 Phases=2

New Load.load_p1ulv8052 conn=wye bus1=p1ulv8052.1.2 kV=0.2080002494301389 Vminpu=0.8 Vmaxpu=1.2 model=1 kW=3.82004 kvar=0.7796807647859518 Phases=2

New Load.load_p1ulv8053 conn=wye bus1=p1ulv8053.1.2 kV=0.2080002494301389 Vminpu=0.8 Vmaxpu=1.2 model=1 kW=13.0501 kvar=1.1298884703894267 Phases=2

New Load.load_p1ulv8054 conn=wye bus1=p1ulv8054.1.2 kV=0.2080002494301389 Vminpu=0.8 Vmaxpu=1.2 model=1 kW=5.420050000000001 kvar=1.1005880935693348 Phases=2

New Load.load_p1ulv8055 conn=wye bus1=p1ulv8055.1.2 kV=0.2080002494301389 Vminpu=0.8 Vmaxpu=1.2 model=1 kW=4.07004 kvar=0.8307064585474014 Phases=2

New Load.load_p1ulv8056 conn=wye bus1=p1ulv8056.1.2 kV=0.2080002494301389 Vminpu=0.8 Vmaxpu=1.2 model=1 kW=10.89 kvar=0.6901467391837689 Phases=2

New Load.load_p1ulv8059 conn=wye bus1=p1ulv8059.1.2 kV=0.2080002494301389 Vminpu=0.8 Vmaxpu=1.2 model=1 kW=11.52 kvar=0.8205013197951115 Phases=2

New Load.load_p1ulv8062 conn=wye bus1=p1ulv8062.1.2 kV=0.2080002494301389 Vminpu=0.8 Vmaxpu=1.2 model=1 kW=7.66008 kvar=1.5514329688562003 Phases=2

New Load.load_p1umv12 conn=wye bus1=p1umv12.1.2.3 kV=12.47 Vminpu=0.8 Vmaxpu=1.2 model=1 kW=932.809 kvar=189.4149461673449 Phases=3

New Load.load_p1ulv8655 conn=wye bus1=p1ulv8655.1.2 kV=0.2080002494301389 Vminpu=0.8 Vmaxpu=1.2 model=1 kW=1.38001 kvar=0.28022298226153225 Phases=2

New Load.load_p1ulv8657 conn=wye bus1=p1ulv8657.1.2 kV=0.2080002494301389 Vminpu=0.8 Vmaxpu=1.2 model=1 kW=1.38001 kvar=0.28022298226153225 Phases=2

New Load.load_p1ulv8658 conn=wye bus1=p1ulv8658.1.2 kV=0.2080002494301389 Vminpu=0.8 Vmaxpu=1.2 model=1 kW=7.21007 kvar=1.460290271871968 Phases=2

New Load.load_p1ulv8666 conn=wye bus1=p1ulv8666.1.2 kV=0.2080002494301389 Vminpu=0.8 Vmaxpu=1.2 model=1 kW=12.05 kvar=0.9191546616517607 Phases=2

New Load.load_p1ulv8667 conn=wye bus1=p1ulv8667.1.2 kV=0.2080002494301389 Vminpu=0.8 Vmaxpu=1.2 model=1 kW=1.38001 kvar=0.28022298226153225 Phases=2

New Load.load_p1ulv8668 conn=wye bus1=p1ulv8668.1.2 kV=0.2080002494301389 Vminpu=0.8 Vmaxpu=1.2 model=1 kW=1.38001 kvar=0.28022298226153225 Phases=2

New Load.load_p1ulv8669 conn=wye bus1=p1ulv8669.1.2 kV=0.2080002494301389 Vminpu=0.8 Vmaxpu=1.2 model=1 kW=1.38001 kvar=0.28022298226153225 Phases=2

New Load.load_p1ulv8670 conn=wye bus1=p1ulv8670.1.2 kV=0.2080002494301389 Vminpu=0.8 Vmaxpu=1.2 model=1 kW=10.59 kvar=0.6306836979747686 Phases=2

New Load.load_p1ulv8671 conn=wye bus1=p1ulv8671.1.2 kV=0.2080002494301389 Vminpu=0.8 Vmaxpu=1.2 model=1 kW=13.2701 kvar=1.1686380972885935 Phases=2

New Load.load_p1ulv8672 conn=wye bus1=p1ulv8672.1.2 kV=0.2080002494301389 Vminpu=0.8 Vmaxpu=1.2 model=1 kW=11.73 kvar=0.8589462568282636 Phases=2

New Load.load_p1ulv8673 conn=wye bus1=p1ulv8673.1.2 kV=0.2080002494301389 Vminpu=0.8 Vmaxpu=1.2 model=1 kW=20.6801 kvar=1.1504099629613984 Phases=2

New Load.load_p1ulv8823 conn=wye bus1=p1ulv8823.1.2 kV=0.2080002494301389 Vminpu=0.8 Vmaxpu=1.2 model=1 kW=1.38001 kvar=0.28022298226153225 Phases=2

New Load.load_p1ulv8824 conn=wye bus1=p1ulv8824.1.2 kV=0.2080002494301389 Vminpu=0.8 Vmaxpu=1.2 model=1 kW=11.760100000000001 kvar=2.387990154921954 Phases=2

New Load.load_p1ulv8825 conn=wye bus1=p1ulv8825.1.2 kV=0.2080002494301389 Vminpu=0.8 Vmaxpu=1.2 model=1 kW=11.86 kvar=0.8807707807580453 Phases=2

New Load.load_p1ulv8826 conn=wye bus1=p1ulv8826.1.2.3 kV=0.48 Vminpu=0.8 Vmaxpu=1.2 model=1 kW=311.70300000000003 kvar=63.29399369560104 Phases=3

New Load.load_p1ulv8827 conn=wye bus1=p1ulv8827.1.2 kV=0.2080002494301389 Vminpu=0.8 Vmaxpu=1.2 model=1 kW=15.9302 kvar=3.2264202828786437 Phases=2

New Load.load_p1ulv8828 conn=wye bus1=p1ulv8828.1.2.3 kV=0.48 Vminpu=0.8 Vmaxpu=1.2 model=1 kW=29.440300000000004 kvar=5.978107886663278 Phases=3

New Load.load_p1ulv8829 conn=wye bus1=p1ulv8829.1.2.3 kV=0.48 Vminpu=0.8 Vmaxpu=1.2 model=1 kW=103.631 kvar=21.043172060162497 Phases=3

New Load.load_p1ulv8830 conn=wye bus1=p1ulv8830.1.2 kV=0.2080002494301389 Vminpu=0.8 Vmaxpu=1.2 model=1 kW=13.510100000000001 kvar=2.7433428110314617 Phases=2

New Load.load_p1ulv8833 conn=wye bus1=p1ulv8833.1.2 kV=0.2080002494301389 Vminpu=0.8 Vmaxpu=1.2 model=1 kW=2.21002 kvar=0.4499187607575488 Phases=2

New Load.load_p1ulv8838 conn=wye bus1=p1ulv8838.1.2 kV=0.2080002494301389 Vminpu=0.8 Vmaxpu=1.2 model=1 kW=12.03 kvar=0.9198658856050712 Phases=2

New Load.load_p1ulv8839 conn=wye bus1=p1ulv8839.1.2 kV=0.2080002494301389 Vminpu=0.8 Vmaxpu=1.2 model=1 kW=11.55 kvar=0.8202741461167985 Phases=2

New Load.load_p1ulv8840 conn=wye bus1=p1ulv8840.1.2 kV=0.2080002494301389 Vminpu=0.8 Vmaxpu=1.2 model=1 kW=2.44002 kvar=0.49033690113400924 Phases=2

New Load.load_p1ulv8841 conn=wye bus1=p1ulv8841.1.2 kV=0.2080002494301389 Vminpu=0.8 Vmaxpu=1.2 model=1 kW=3.36003 kvar=0.6805230909267135 Phases=2

New Load.load_p1ulv8842 conn=wye bus1=p1ulv8842.1.2 kV=0.2080002494301389 Vminpu=0.8 Vmaxpu=1.2 model=1 kW=2.17002 kvar=0.4395046228077686 Phases=2

New Load.load_p1ulv8843 conn=wye bus1=p1ulv8843.1.2 kV=0.2080002494301389 Vminpu=0.8 Vmaxpu=1.2 model=1 kW=1.38001 kvar=0.28022298226153225 Phases=2

New Load.load_p1ulv9754 conn=wye bus1=p1ulv9754.1.2 kV=0.2080002494301389 Vminpu=0.8 Vmaxpu=1.2 model=1 kW=12.05 kvar=0.9191546616517607 Phases=2

New Load.load_p1ulv9755 conn=wye bus1=p1ulv9755.1.2 kV=0.2080002494301389 Vminpu=0.8 Vmaxpu=1.2 model=1 kW=12.2301 kvar=0.960477617731872 Phases=2

New Load.load_p1ulv9756 conn=wye bus1=p1ulv9756.1.2 kV=0.2080002494301389 Vminpu=0.8 Vmaxpu=1.2 model=1 kW=13.7101 kvar=1.2610064660568046 Phases=2

New Load.load_p1ulv9757 conn=wye bus1=p1ulv9757.1.2 kV=0.2080002494301389 Vminpu=0.8 Vmaxpu=1.2 model=1 kW=7.200070000000001 kvar=1.4582649236133909 Phases=2

New Load.load_p1ulv9758 conn=wye bus1=p1ulv9758.1.2 kV=0.2080002494301389 Vminpu=0.8 Vmaxpu=1.2 model=1 kW=12.0401 kvar=0.9195182361353397 Phases=2

New Load.load_p1ulv9759 conn=wye bus1=p1ulv9759.1.2 kV=0.2080002494301389 Vminpu=0.8 Vmaxpu=1.2 model=1 kW=11.42 kvar=0.8000910422905317 Phases=2

New Load.load_p1ulv9760 conn=wye bus1=p1ulv9760.1.2 kV=0.2080002494301389 Vminpu=0.8 Vmaxpu=1.2 model=1 kW=12.67 kvar=1.0498234284108339 Phases=2

New Load.load_p1ulv9761 conn=wye bus1=p1ulv9761.1.2 kV=0.2080002494301389 Vminpu=0.8 Vmaxpu=1.2 model=1 kW=14.5201 kvar=1.4291550279324372 Phases=2

New Load.load_p1ulv9762 conn=wye bus1=p1ulv9762.1.2 kV=0.2080002494301389 Vminpu=0.8 Vmaxpu=1.2 model=1 kW=4.93005 kvar=1.0010893498586726 Phases=2

New Load.load_p1ulv9763 conn=wye bus1=p1ulv9763.1.2 kV=0.2080002494301389 Vminpu=0.8 Vmaxpu=1.2 model=1 kW=11.96 kvar=0.910306540815263 Phases=2

New Load.load_p1ulv9764 conn=wye bus1=p1ulv9764.1.2 kV=0.2080002494301389 Vminpu=0.8 Vmaxpu=1.2 model=1 kW=10.9 kvar=0.6904055379154336 Phases=2

New Load.load_p1ulv9765 conn=wye bus1=p1ulv9765.1.2 kV=0.2080002494301389 Vminpu=0.8 Vmaxpu=1.2 model=1 kW=7.79008 kvar=1.581843211031744 Phases=2

New Load.load_p1ulv9766 conn=wye bus1=p1ulv9766.1.2 kV=0.2080002494301389 Vminpu=0.8 Vmaxpu=1.2 model=1 kW=11.45 kvar=0.8000206635310265 Phases=2

New Load.load_p1ulv9769 conn=wye bus1=p1ulv9769.1.2 kV=0.2080002494301389 Vminpu=0.8 Vmaxpu=1.2 model=1 kW=13.8101 kvar=1.2813123321202051 Phases=2

New Load.load_p1ulv9770 conn=wye bus1=p1ulv9770.1.2 kV=0.2080002494301389 Vminpu=0.8 Vmaxpu=1.2 model=1 kW=12.7301 kvar=1.059267265977166 Phases=2

New Load.load_p1ulv9771 conn=wye bus1=p1ulv9771.1.2 kV=0.2080002494301389 Vminpu=0.8 Vmaxpu=1.2 model=1 kW=12.19 kvar=0.9498984600139976 Phases=2

New Load.load_p1ulv9772 conn=wye bus1=p1ulv9772.1.2 kV=0.2080002494301389 Vminpu=0.8 Vmaxpu=1.2 model=1 kW=11.72 kvar=0.8591212600552419 Phases=2

New Load.load_p1ulv9773 conn=wye bus1=p1ulv9773.1.2 kV=0.2080002494301389 Vminpu=0.8 Vmaxpu=1.2 model=1 kW=4.4900400000000005 kvar=0.9093894694941951 Phases=2

New Load.load_p1ulv9775 conn=wye bus1=p1ulv9775.1.2 kV=0.2080002494301389 Vminpu=0.8 Vmaxpu=1.2 model=1 kW=5.16005 kvar=1.0504897247296356 Phases=2

New Load.load_p1ulv9776 conn=wye bus1=p1ulv9776.1.2 kV=0.2080002494301389 Vminpu=0.8 Vmaxpu=1.2 model=1 kW=10.6 kvar=0.6294879397252322 Phases=2

New Load.load_p1ulv9970 conn=wye bus1=p1ulv9970.1.2.3 kV=0.48 Vminpu=0.8 Vmaxpu=1.2 model=1 kW=238.342 kvar=48.39740729282984 Phases=3

New Load.load_p1ulv9972 conn=wye bus1=p1ulv9972.1.2 kV=0.2080002494301389 Vminpu=0.8 Vmaxpu=1.2 model=1 kW=3.0300300000000004 kvar=0.6200140497357622 Phases=2

New Load.load_p1ulv9973 conn=wye bus1=p1ulv9973.1.2.3 kV=0.48 Vminpu=0.8 Vmaxpu=1.2 model=1 kW=90.72090000000001 kvar=18.421664445511443 Phases=3

New Load.load_p1ulv9975 conn=wye bus1=p1ulv9975.1.2 kV=0.2080002494301389 Vminpu=0.8 Vmaxpu=1.2 model=1 kW=15.9702 kvar=3.242887422057175 Phases=2

New Load.load_p1ulv9976 conn=wye bus1=p1ulv9976.1.2.3 kV=0.48 Vminpu=0.8 Vmaxpu=1.2 model=1 kW=48.5405 kvar=9.856568916504886 Phases=3

New Load.load_p1ulv9979 conn=wye bus1=p1ulv9979.1.2.3 kV=0.48 Vminpu=0.8 Vmaxpu=1.2 model=1 kW=91.3809 kvar=18.555683161529885 Phases=3

New Load.load_p1ulv9980 conn=wye bus1=p1ulv9980.1.2 kV=0.2080002494301389 Vminpu=0.8 Vmaxpu=1.2 model=1 kW=16.1702 kvar=3.283499154183976 Phases=2

New Load.load_p1ulv9981 conn=wye bus1=p1ulv9981.1.2.3 kV=0.48 Vminpu=0.8 Vmaxpu=1.2 model=1 kW=96.211 kvar=19.53647679825819 Phases=3

New Load.load_p1ulv9982 conn=wye bus1=p1ulv9982.1.2.3 kV=0.48 Vminpu=0.8 Vmaxpu=1.2 model=1 kW=91.0409 kvar=18.48664321691432 Phases=3

New Load.load_p1ulv9983 conn=wye bus1=p1ulv9983.1.2.3 kV=0.48 Vminpu=0.8 Vmaxpu=1.2 model=1 kW=98.27099999999999 kvar=19.954777639164234 Phases=3

New Load.load_p1ulv9984 conn=wye bus1=p1ulv9984.1.2.3 kV=0.48 Vminpu=0.8 Vmaxpu=1.2 model=1 kW=92.4409 kvar=18.770925341801927 Phases=3

New Load.load_p1ulv9985 conn=wye bus1=p1ulv9985.1.2 kV=0.2080002494301389 Vminpu=0.8 Vmaxpu=1.2 model=1 kW=15.6902 kvar=3.1860309970796545 Phases=2

New Load.load_p1ulv9988 conn=wye bus1=p1ulv9988.1.2 kV=0.2080002494301389 Vminpu=0.8 Vmaxpu=1.2 model=1 kW=13.3901 kvar=2.7189757717553813 Phases=2

New Load.load_p1ulv10929 conn=wye bus1=p1ulv10929.1.2 kV=0.2080002494301389 Vminpu=0.8 Vmaxpu=1.2 model=1 kW=5.10005 kvar=1.0409343578723245 Phases=2

New Load.load_p1ulv11304 conn=wye bus1=p1ulv11304.1.2 kV=0.2080002494301389 Vminpu=0.8 Vmaxpu=1.2 model=1 kW=4.77005 kvar=0.9710930148829175 Phases=2

New Load.load_p1ulv11306 conn=wye bus1=p1ulv11306.1.2 kV=0.2080002494301389 Vminpu=0.8 Vmaxpu=1.2 model=1 kW=4.33004 kvar=0.879252122891664 Phases=2

New Load.load_p1ulv11307 conn=wye bus1=p1ulv11307.1.2 kV=0.2080002494301389 Vminpu=0.8 Vmaxpu=1.2 model=1 kW=3.22003 kvar=0.6504775958854341 Phases=2

New Load.load_p1ulv11308 conn=wye bus1=p1ulv11308.1.2 kV=0.2080002494301389 Vminpu=0.8 Vmaxpu=1.2 model=1 kW=4.27004 kvar=0.869300325420206 Phases=2

New Load.load_p1ulv11309 conn=wye bus1=p1ulv11309.1.2 kV=0.2080002494301389 Vminpu=0.8 Vmaxpu=1.2 model=1 kW=3.15003 kvar=0.6396408727569326 Phases=2

New Load.load_p1ulv11311 conn=wye bus1=p1ulv11311.1.2 kV=0.2080002494301389 Vminpu=0.8 Vmaxpu=1.2 model=1 kW=1.42001 kvar=0.2898279815927842 Phases=2

New Load.load_p1ulv11312 conn=wye bus1=p1ulv11312.1.2 kV=0.2080002494301389 Vminpu=0.8 Vmaxpu=1.2 model=1 kW=3.16003 kvar=0.6400161257551694 Phases=2

New Load.load_p1ulv11313 conn=wye bus1=p1ulv11313.1.2.3 kV=0.48 Vminpu=0.8 Vmaxpu=1.2 model=1 kW=29.0903 kvar=5.907037355441375 Phases=3

New Load.load_p1ulv11314 conn=wye bus1=p1ulv11314.1.2 kV=0.2080002494301389 Vminpu=0.8 Vmaxpu=1.2 model=1 kW=4.41004 kvar=0.890871270441145 Phases=2

New Load.load_p1ulv11315 conn=wye bus1=p1ulv11315.1.2 kV=0.2080002494301389 Vminpu=0.8 Vmaxpu=1.2 model=1 kW=3.3000300000000005 kvar=0.6700996718520332 Phases=2

New Load.load_p1ulv11316 conn=wye bus1=p1ulv11316.1.2 kV=0.2080002494301389 Vminpu=0.8 Vmaxpu=1.2 model=1 kW=4.01004 kvar=0.810067352976347 Phases=2

New Load.load_p1ulv11317 conn=wye bus1=p1ulv11317.1.2.3 kV=0.48 Vminpu=0.8 Vmaxpu=1.2 model=1 kW=28.740300000000005 kvar=5.835966824219474 Phases=3

New Load.load_p1ulv11320 conn=wye bus1=p1ulv11320.1.2 kV=0.2080002494301389 Vminpu=0.8 Vmaxpu=1.2 model=1 kW=5.19005 kvar=1.0511658729428572 Phases=2

New Load.load_p1ulv11321 conn=wye bus1=p1ulv11321.1.2 kV=0.2080002494301389 Vminpu=0.8 Vmaxpu=1.2 model=1 kW=5.36005 kvar=1.091205986189491 Phases=2

New Load.load_p1ulv11322 conn=wye bus1=p1ulv11322.1.2 kV=0.2080002494301389 Vminpu=0.8 Vmaxpu=1.2 model=1 kW=10.2001 kvar=2.0712186443329075 Phases=2

New Load.load_p1ulv11568 conn=wye bus1=p1ulv11568.1.2 kV=0.2080002494301389 Vminpu=0.8 Vmaxpu=1.2 model=1 kW=5.23005 kvar=1.059267265977166 Phases=2

New Load.load_p1ulv11569 conn=wye bus1=p1ulv11569.1.2 kV=0.2080002494301389 Vminpu=0.8 Vmaxpu=1.2 model=1 kW=5.48005 kvar=1.109900972441596 Phases=2

New Load.load_p1ulv11570 conn=wye bus1=p1ulv11570.1.2 kV=0.2080002494301389 Vminpu=0.8 Vmaxpu=1.2 model=1 kW=4.76005 kvar=0.9690572018099246 Phases=2

New Load.load_p1ulv11571 conn=wye bus1=p1ulv11571.1.2 kV=0.2080002494301389 Vminpu=0.8 Vmaxpu=1.2 model=1 kW=5.16005 kvar=1.0504897247296356 Phases=2

New Load.load_p1ulv11572 conn=wye bus1=p1ulv11572.1.2 kV=0.2080002494301389 Vminpu=0.8 Vmaxpu=1.2 model=1 kW=5.76006 kvar=1.1696300687715029 Phases=2

New Load.load_p1ulv11573 conn=wye bus1=p1ulv11573.1.2 kV=0.2080002494301389 Vminpu=0.8 Vmaxpu=1.2 model=1 kW=5.78006 kvar=1.1706634455471703 Phases=2

New Load.load_p1ulv11574 conn=wye bus1=p1ulv11574.1.2 kV=0.2080002494301389 Vminpu=0.8 Vmaxpu=1.2 model=1 kW=5.28005 kvar=1.069394007270052 Phases=2

New Load.load_p1ulv11575 conn=wye bus1=p1ulv11575.1.2 kV=0.2080002494301389 Vminpu=0.8 Vmaxpu=1.2 model=1 kW=4.94005 kvar=1.0005321664784275 Phases=2

New Load.load_p1ulv11576 conn=wye bus1=p1ulv11576.1.2 kV=0.2080002494301389 Vminpu=0.8 Vmaxpu=1.2 model=1 kW=5.29005 kvar=1.079713885131026 Phases=2

New Load.load_p1ulv11577 conn=wye bus1=p1ulv11577.1.2 kV=0.2080002494301389 Vminpu=0.8 Vmaxpu=1.2 model=1 kW=5.29005 kvar=1.0686419089616372 Phases=2

New Load.load_p1ulv11578 conn=wye bus1=p1ulv11578.1.2 kV=0.2080002494301389 Vminpu=0.8 Vmaxpu=1.2 model=1 kW=5.380050000000001 kvar=1.0896474898558242 Phases=2

New Load.load_p1ulv11579 conn=wye bus1=p1ulv11579.1.2 kV=0.2080002494301389 Vminpu=0.8 Vmaxpu=1.2 model=1 kW=4.98005 kvar=1.011242282890373 Phases=2

New Load.load_p1ulv11580 conn=wye bus1=p1ulv11580.1.2 kV=0.2080002494301389 Vminpu=0.8 Vmaxpu=1.2 model=1 kW=4.85005 kvar=0.9899086641108747 Phases=2

New Load.load_p1ulv11581 conn=wye bus1=p1ulv11581.1.2 kV=0.2080002494301389 Vminpu=0.8 Vmaxpu=1.2 model=1 kW=4.86005 kvar=0.9894153325398525 Phases=2

New Load.load_p1ulv11582 conn=wye bus1=p1ulv11582.1.2 kV=0.2080002494301389 Vminpu=0.8 Vmaxpu=1.2 model=1 kW=4.48004 kvar=0.9097109219867646 Phases=2

New Load.load_p1ulv11583 conn=wye bus1=p1ulv11583.1.2 kV=0.2080002494301389 Vminpu=0.8 Vmaxpu=1.2 model=1 kW=4.630050000000001 kvar=0.9401717516684716 Phases=2

New Load.load_p1ulv11584 conn=wye bus1=p1ulv11584.1.2 kV=0.2080002494301389 Vminpu=0.8 Vmaxpu=1.2 model=1 kW=4.46004 kvar=0.910306540815263 Phases=2

New Load.load_p1ulv11585 conn=wye bus1=p1ulv11585.1.2 kV=0.2080002494301389 Vminpu=0.8 Vmaxpu=1.2 model=1 kW=5.39005 kvar=1.1001241626356058 Phases=2

New Load.load_p1ulv11586 conn=wye bus1=p1ulv11586.1.2 kV=0.2080002494301389 Vminpu=0.8 Vmaxpu=1.2 model=1 kW=4.28004 kvar=0.8690991898599637 Phases=2

New Load.load_p1ulv11587 conn=wye bus1=p1ulv11587.1.2 kV=0.2080002494301389 Vminpu=0.8 Vmaxpu=1.2 model=1 kW=4.48004 kvar=0.9097109219867646 Phases=2

New Load.load_p1ulv11588 conn=wye bus1=p1ulv11588.1.2 kV=0.2080002494301389 Vminpu=0.8 Vmaxpu=1.2 model=1 kW=4.86005 kvar=0.9894153325398525 Phases=2

New Load.load_p1ulv11589 conn=wye bus1=p1ulv11589.1.2 kV=0.2080002494301389 Vminpu=0.8 Vmaxpu=1.2 model=1 kW=4.55005 kvar=0.9191546616517607 Phases=2

New Load.load_p1ulv11590 conn=wye bus1=p1ulv11590.1.2 kV=0.2080002494301389 Vminpu=0.8 Vmaxpu=1.2 model=1 kW=4.32004 kvar=0.8794793907851697 Phases=2

New Load.load_p1ulv11591 conn=wye bus1=p1ulv11591.1.2 kV=0.2080002494301389 Vminpu=0.8 Vmaxpu=1.2 model=1 kW=4.77005 kvar=0.9710930148829175 Phases=2

New Load.load_p1ulv11592 conn=wye bus1=p1ulv11592.1.2 kV=0.2080002494301389 Vminpu=0.8 Vmaxpu=1.2 model=1 kW=4.87005 kvar=0.9889058302206326 Phases=2

New Load.load_p1ulv11593 conn=wye bus1=p1ulv11593.1.2 kV=0.2080002494301389 Vminpu=0.8 Vmaxpu=1.2 model=1 kW=4.73005 kvar=0.960477617731872 Phases=2

New Load.load_p1ulv11594 conn=wye bus1=p1ulv11594.1.2 kV=0.2080002494301389 Vminpu=0.8 Vmaxpu=1.2 model=1 kW=4.71005 kvar=0.9588781364449609 Phases=2

New Load.load_p1ulv11595 conn=wye bus1=p1ulv11595.1.2 kV=0.2080002494301389 Vminpu=0.8 Vmaxpu=1.2 model=1 kW=4.53005 kvar=0.9198658856050712 Phases=2

New Load.load_p1ulv11596 conn=wye bus1=p1ulv11596.1.2 kV=0.2080002494301389 Vminpu=0.8 Vmaxpu=1.2 model=1 kW=4.670050000000001 kvar=0.9507348841529898 Phases=2

New Load.load_p1ulv11597 conn=wye bus1=p1ulv11597.1.2 kV=0.2080002494301389 Vminpu=0.8 Vmaxpu=1.2 model=1 kW=4.920050000000001 kvar=0.9990587632523329 Phases=2

New Load.load_p1ulv11598 conn=wye bus1=p1ulv11598.1.2 kV=0.2080002494301389 Vminpu=0.8 Vmaxpu=1.2 model=1 kW=4.62005 kvar=0.940555818788026 Phases=2

New Load.load_p1ulv11599 conn=wye bus1=p1ulv11599.1.2 kV=0.2080002494301389 Vminpu=0.8 Vmaxpu=1.2 model=1 kW=5.170050000000001 kvar=1.0498234284108339 Phases=2

New Load.load_p1ulv11600 conn=wye bus1=p1ulv11600.1.2 kV=0.2080002494301389 Vminpu=0.8 Vmaxpu=1.2 model=1 kW=4.840050000000001 kvar=0.9802786838926555 Phases=2

New Load.load_p1ulv11601 conn=wye bus1=p1ulv11601.1.2 kV=0.2080002494301389 Vminpu=0.8 Vmaxpu=1.2 model=1 kW=5.80006 kvar=1.1807837972142463 Phases=2

New Load.load_p1ulv11602 conn=wye bus1=p1ulv11602.1.2 kV=0.2080002494301389 Vminpu=0.8 Vmaxpu=1.2 model=1 kW=4.72005 kvar=0.9609139495179535 Phases=2

New Load.load_p1ulv11603 conn=wye bus1=p1ulv11603.1.2 kV=0.2080002494301389 Vminpu=0.8 Vmaxpu=1.2 model=1 kW=5.19005 kvar=1.0511658729428572 Phases=2

New Load.load_p1ulv11604 conn=wye bus1=p1ulv11604.1.2 kV=0.2080002494301389 Vminpu=0.8 Vmaxpu=1.2 model=1 kW=4.78005 kvar=0.9706305507635722 Phases=2

New Load.load_p1ulv11605 conn=wye bus1=p1ulv11605.1.2 kV=0.2080002494301389 Vminpu=0.8 Vmaxpu=1.2 model=1 kW=5.12005 kvar=1.0396704953791336 Phases=2

New Load.load_p1ulv11606 conn=wye bus1=p1ulv11606.1.2 kV=0.2080002494301389 Vminpu=0.8 Vmaxpu=1.2 model=1 kW=4.920050000000001 kvar=0.9990587632523329 Phases=2

New Load.load_p1ulv11607 conn=wye bus1=p1ulv11607.1.2 kV=0.2080002494301389 Vminpu=0.8 Vmaxpu=1.2 model=1 kW=5.47005 kvar=1.110741026601035 Phases=2

New Load.load_p1ulv11608 conn=wye bus1=p1ulv11608.1.2 kV=0.2080002494301389 Vminpu=0.8 Vmaxpu=1.2 model=1 kW=4.94005 kvar=1.0005321664784275 Phases=2

New Load.load_p1ulv11609 conn=wye bus1=p1ulv11609.1.2 kV=0.2080002494301389 Vminpu=0.8 Vmaxpu=1.2 model=1 kW=4.58005 kvar=0.9300188186367714 Phases=2

New Load.load_p1ulv11610 conn=wye bus1=p1ulv11610.1.2 kV=0.2080002494301389 Vminpu=0.8 Vmaxpu=1.2 model=1 kW=5.340050000000001 kvar=1.078742398644737 Phases=2

New Load.load_p1ulv11611 conn=wye bus1=p1ulv11611.1.2 kV=0.2080002494301389 Vminpu=0.8 Vmaxpu=1.2 model=1 kW=4.66005 kvar=0.951129136852173 Phases=2

New Load.load_p1ulv12478 conn=wye bus1=p1ulv12478.1.2 kV=0.2080002494301389 Vminpu=0.8 Vmaxpu=1.2 model=1 kW=14.5601 kvar=2.956554404697166 Phases=2

New Load.load_p1ulv12479 conn=wye bus1=p1ulv12479.1.2 kV=0.2080002494301389 Vminpu=0.8 Vmaxpu=1.2 model=1 kW=12.8801 kvar=2.6221475961454206 Phases=2

New Load.load_p1ulv12480 conn=wye bus1=p1ulv12480.1.2 kV=0.2080002494301389 Vminpu=0.8 Vmaxpu=1.2 model=1 kW=11.6501 kvar=2.3717425881673098 Phases=2

New Load.load_p1ulv12481 conn=wye bus1=p1ulv12480.1.2 kV=0.2080002494301389 Vminpu=0.8 Vmaxpu=1.2 model=1 kW=15.6302 kvar=3.1738474774416137 Phases=2

New Load.load_p1ulv12482 conn=wye bus1=p1ulv12482.1.2 kV=0.2080002494301389 Vminpu=0.8 Vmaxpu=1.2 model=1 kW=12.3901 kvar=2.522392755568775 Phases=2

New Load.load_p1ulv12483 conn=wye bus1=p1ulv12483.1.2 kV=0.2080002494301389 Vminpu=0.8 Vmaxpu=1.2 model=1 kW=12.4501 kvar=2.528100630759417 Phases=2

New Load.load_p1ulv12484 conn=wye bus1=p1ulv12484.1.2 kV=0.2080002494301389 Vminpu=0.8 Vmaxpu=1.2 model=1 kW=15.2502 kvar=3.0966851864006917 Phases=2

New Load.load_p1ulv12485 conn=wye bus1=p1ulv12485.1.2 kV=0.2080002494301389 Vminpu=0.8 Vmaxpu=1.2 model=1 kW=15.7502 kvar=3.198214516717694 Phases=2

New Load.load_p1ulv12486 conn=wye bus1=p1ulv12486.1.2 kV=0.2080002494301389 Vminpu=0.8 Vmaxpu=1.2 model=1 kW=17.270200000000003 kvar=3.5068636808813807 Phases=2

New Load.load_p1ulv12487 conn=wye bus1=p1ulv12487.1.2 kV=0.2080002494301389 Vminpu=0.8 Vmaxpu=1.2 model=1 kW=18.3802 kvar=3.7322587941851246 Phases=2

New Load.load_p1ulv12488 conn=wye bus1=p1ulv12488.1.2 kV=0.2080002494301389 Vminpu=0.8 Vmaxpu=1.2 model=1 kW=13.2801 kvar=2.6966393190856404 Phases=2

New Load.load_p1ulv12489 conn=wye bus1=p1ulv12488.1.2 kV=0.2080002494301389 Vminpu=0.8 Vmaxpu=1.2 model=1 kW=13.840100000000001 kvar=2.8103521690406827 Phases=2

New Load.load_p1ulv12490 conn=wye bus1=p1ulv12490.1.2 kV=0.2080002494301389 Vminpu=0.8 Vmaxpu=1.2 model=1 kW=14.6501 kvar=2.982486510065142 Phases=2

New Load.load_p1ulv12491 conn=wye bus1=p1ulv12491.1.2 kV=0.2080002494301389 Vminpu=0.8 Vmaxpu=1.2 model=1 kW=15.4402 kvar=3.127178218208362 Phases=2

New Load.load_p1ulv12492 conn=wye bus1=p1ulv12492.1.2 kV=0.2080002494301389 Vminpu=0.8 Vmaxpu=1.2 model=1 kW=15.3302 kvar=3.1129298792514124 Phases=2

New Load.load_p1ulv12493 conn=wye bus1=p1ulv12493.1.2 kV=0.2080002494301389 Vminpu=0.8 Vmaxpu=1.2 model=1 kW=13.590100000000001 kvar=2.7595875038821815 Phases=2

New Load.load_p1ulv12494 conn=wye bus1=p1ulv12494.1.2 kV=0.2080002494301389 Vminpu=0.8 Vmaxpu=1.2 model=1 kW=16.2302 kvar=3.30416533372873 Phases=2

New Load.load_p1ulv12495 conn=wye bus1=p1ulv12492.1.2 kV=0.2080002494301389 Vminpu=0.8 Vmaxpu=1.2 model=1 kW=15.070200000000002 kvar=3.0601346274865717 Phases=2

New Load.load_p1ulv12496 conn=wye bus1=p1ulv12496.1.2.3 kV=0.48 Vminpu=0.8 Vmaxpu=1.2 model=1 kW=22.4002 kvar=4.548554609933823 Phases=3

New Load.load_p1ulv12497 conn=wye bus1=p1ulv12496.1.2.3 kV=0.48 Vminpu=0.8 Vmaxpu=1.2 model=1 kW=22.8902 kvar=4.648053353644484 Phases=3

New Load.load_p1ulv12498 conn=wye bus1=p1ulv12498.1.2 kV=0.2080002494301389 Vminpu=0.8 Vmaxpu=1.2 model=1 kW=15.4502 kvar=3.1372969185274933 Phases=2

New Load.load_p1ulv12499 conn=wye bus1=p1ulv12499.1.2 kV=0.2080002494301389 Vminpu=0.8 Vmaxpu=1.2 model=1 kW=16.680200000000003 kvar=3.3870590711073185 Phases=2

New Load.load_p1ulv12500 conn=wye bus1=p1ulv12500.1.2 kV=0.2080002494301389 Vminpu=0.8 Vmaxpu=1.2 model=1 kW=11.3501 kvar=2.3106681959775264 Phases=2

New Load.load_p1ulv12501 conn=wye bus1=p1ulv12501.1.2 kV=0.2080002494301389 Vminpu=0.8 Vmaxpu=1.2 model=1 kW=13.5201 kvar=2.7382910990789537 Phases=2

New Load.load_p1ulv12502 conn=wye bus1=p1ulv12502.1.2 kV=0.2080002494301389 Vminpu=0.8 Vmaxpu=1.2 model=1 kW=14.090100000000001 kvar=2.8611168341991844 Phases=2

New Load.load_p1ulv12503 conn=wye bus1=p1ulv12503.1.2 kV=0.2080002494301389 Vminpu=0.8 Vmaxpu=1.2 model=1 kW=14.9001 kvar=3.033381836889961 Phases=2

New Load.load_p1ulv12504 conn=wye bus1=p1ulv12504.1.2 kV=0.2080002494301389 Vminpu=0.8 Vmaxpu=1.2 model=1 kW=13.510100000000001 kvar=2.7433428110314617 Phases=2

New Load.load_p1ulv12505 conn=wye bus1=p1ulv12505.1.2 kV=0.2080002494301389 Vminpu=0.8 Vmaxpu=1.2 model=1 kW=16.4102 kvar=3.3322332327361375 Phases=2

New Load.load_p1ulv12506 conn=wye bus1=p1ulv12506.1.2 kV=0.2080002494301389 Vminpu=0.8 Vmaxpu=1.2 model=1 kW=12.2901 kvar=2.502034624838848 Phases=2

New Load.load_p1ulv12507 conn=wye bus1=p1ulv12507.1.2 kV=0.2080002494301389 Vminpu=0.8 Vmaxpu=1.2 model=1 kW=12.2701 kvar=2.4915500718452956 Phases=2

New Load.load_p1ulv12508 conn=wye bus1=p1ulv12508.1.2 kV=0.2080002494301389 Vminpu=0.8 Vmaxpu=1.2 model=1 kW=14.090100000000001 kvar=2.8611168341991844 Phases=2

New Load.load_p1ulv12509 conn=wye bus1=p1ulv12509.1.2 kV=0.2080002494301389 Vminpu=0.8 Vmaxpu=1.2 model=1 kW=12.6901 kvar=2.5768347093115778 Phases=2

New Load.load_p1ulv12510 conn=wye bus1=p1ulv12510.1.2 kV=0.2080002494301389 Vminpu=0.8 Vmaxpu=1.2 model=1 kW=16.1402 kvar=3.2774073943649564 Phases=2

New Load.load_p1ulv12511 conn=wye bus1=p1ulv12511.1.2 kV=0.2080002494301389 Vminpu=0.8 Vmaxpu=1.2 model=1 kW=17.7102 kvar=3.596209491560343 Phases=2

New Load.load_p1ulv12512 conn=wye bus1=p1ulv12512.1.2 kV=0.2080002494301389 Vminpu=0.8 Vmaxpu=1.2 model=1 kW=14.8301 kvar=3.011380243068347 Phases=2

New Load.load_p1ulv12513 conn=wye bus1=p1ulv12513.1.2 kV=0.2080002494301389 Vminpu=0.8 Vmaxpu=1.2 model=1 kW=14.680100000000001 kvar=2.9809214439732465 Phases=2

New Load.load_p1ulv12514 conn=wye bus1=p1ulv12514.1.2 kV=0.2080002494301389 Vminpu=0.8 Vmaxpu=1.2 model=1 kW=12.9101 kvar=2.621507614651059 Phases=2

New Load.load_p1ulv12515 conn=wye bus1=p1ulv12515.1.2 kV=0.2080002494301389 Vminpu=0.8 Vmaxpu=1.2 model=1 kW=16.0102 kvar=3.251009768482536 Phases=2

New Load.load_p1ulv12516 conn=wye bus1=p1ulv12516.1.2 kV=0.2080002494301389 Vminpu=0.8 Vmaxpu=1.2 model=1 kW=13.340100000000001 kvar=2.7088228387236803 Phases=2

New Load.load_p1ulv12517 conn=wye bus1=p1ulv12516.1.2 kV=0.2080002494301389 Vminpu=0.8 Vmaxpu=1.2 model=1 kW=15.7802 kvar=3.196040058999986 Phases=2

New Load.load_p1ulv12518 conn=wye bus1=p1ulv12518.1.2 kV=0.2080002494301389 Vminpu=0.8 Vmaxpu=1.2 model=1 kW=14.1901 kvar=2.881422700262584 Phases=2

New Load.load_p1ulv12519 conn=wye bus1=p1ulv12519.1.2 kV=0.2080002494301389 Vminpu=0.8 Vmaxpu=1.2 model=1 kW=9.7401 kvar=1.9778116604412652 Phases=2

New Load.load_p1ulv12520 conn=wye bus1=p1ulv12520.1.2 kV=0.2080002494301389 Vminpu=0.8 Vmaxpu=1.2 model=1 kW=3.7300400000000002 kvar=0.7593664194785962 Phases=2

New Load.load_p1ulv12521 conn=wye bus1=p1ulv12520.1.2 kV=0.2080002494301389 Vminpu=0.8 Vmaxpu=1.2 model=1 kW=3.78004 kvar=0.7695454848435601 Phases=2

New Load.load_p1ulv12522 conn=wye bus1=p1ulv12522.1.2 kV=0.2080002494301389 Vminpu=0.8 Vmaxpu=1.2 model=1 kW=3.29003 kvar=0.6697886084538411 Phases=2

New Load.load_p1ulv12523 conn=wye bus1=p1ulv12523.1.2 kV=0.2080002494301389 Vminpu=0.8 Vmaxpu=1.2 model=1 kW=3.52004 kvar=0.7092301716051945 Phases=2

New Load.load_p1ulv12524 conn=wye bus1=p1ulv12524.1.2 kV=0.2080002494301389 Vminpu=0.8 Vmaxpu=1.2 model=1 kW=3.77004 kvar=0.7694756260336619 Phases=2

New Load.load_p1ulv12525 conn=wye bus1=p1ulv12525.1.2 kV=0.2080002494301389 Vminpu=0.8 Vmaxpu=1.2 model=1 kW=3.51004 kvar=0.7109053401536299 Phases=2

New Load.load_p1ulv12526 conn=wye bus1=p1ulv12526.1.2 kV=0.2080002494301389 Vminpu=0.8 Vmaxpu=1.2 model=1 kW=3.53004 kvar=0.7204909600226704 Phases=2

New Load.load_p1ulv12527 conn=wye bus1=p1ulv12527.1.2 kV=0.2080002494301389 Vminpu=0.8 Vmaxpu=1.2 model=1 kW=3.21003 kvar=0.6501428670480555 Phases=2

New Load.load_p1ulv12528 conn=wye bus1=p1ulv12528.1.2 kV=0.2080002494301389 Vminpu=0.8 Vmaxpu=1.2 model=1 kW=3.41003 kvar=0.6906498322195993 Phases=2

New Load.load_p1ulv12529 conn=wye bus1=p1ulv12529.1.2 kV=0.2080002494301389 Vminpu=0.8 Vmaxpu=1.2 model=1 kW=3.77004 kvar=0.7694756260336619 Phases=2

New Load.load_p1ulv12530 conn=wye bus1=p1ulv12530.1.2 kV=0.2080002494301389 Vminpu=0.8 Vmaxpu=1.2 model=1 kW=3.51004 kvar=0.7109053401536299 Phases=2

New Load.load_p1ulv12531 conn=wye bus1=p1ulv12531.1.2 kV=0.2080002494301389 Vminpu=0.8 Vmaxpu=1.2 model=1 kW=3.52004 kvar=0.7202814017128122 Phases=2

New Load.load_p1ulv12532 conn=wye bus1=p1ulv12532.1.2 kV=0.2080002494301389 Vminpu=0.8 Vmaxpu=1.2 model=1 kW=3.3200300000000005 kvar=0.6706785752516337 Phases=2

New Load.load_p1ulv12533 conn=wye bus1=p1ulv12533.1.2 kV=0.2080002494301389 Vminpu=0.8 Vmaxpu=1.2 model=1 kW=3.49003 kvar=0.7105048699136965 Phases=2

New Load.load_p1ulv12534 conn=wye bus1=p1ulv12534.1.2 kV=0.2080002494301389 Vminpu=0.8 Vmaxpu=1.2 model=1 kW=3.86004 kvar=0.7797658839270477 Phases=2

New Load.load_p1ulv12535 conn=wye bus1=p1ulv12535.1.2 kV=0.2080002494301389 Vminpu=0.8 Vmaxpu=1.2 model=1 kW=3.70004 kvar=0.7493869570665965 Phases=2

New Load.load_p1ulv12536 conn=wye bus1=p1ulv12536.1.2 kV=0.2080002494301389 Vminpu=0.8 Vmaxpu=1.2 model=1 kW=3.83004 kvar=0.7797245502085238 Phases=2

New Load.load_p1ulv12537 conn=wye bus1=p1ulv12537.1.2 kV=0.2080002494301389 Vminpu=0.8 Vmaxpu=1.2 model=1 kW=3.62004 kvar=0.7407437090079797 Phases=2

New Load.load_p1ulv12538 conn=wye bus1=p1ulv12538.1.2 kV=0.2080002494301389 Vminpu=0.8 Vmaxpu=1.2 model=1 kW=3.43003 kvar=0.70007864149034 Phases=2

New Load.load_p1ulv12539 conn=wye bus1=p1ulv12539.1.2 kV=0.2080002494301389 Vminpu=0.8 Vmaxpu=1.2 model=1 kW=3.92004 kvar=0.8000910422905317 Phases=2

New Load.load_p1ulv12540 conn=wye bus1=p1ulv12540.1.2 kV=0.2080002494301389 Vminpu=0.8 Vmaxpu=1.2 model=1 kW=3.7500400000000003 kvar=0.7595136983594827 Phases=2

New Load.load_p1ulv12541 conn=wye bus1=p1ulv12541.1.2 kV=0.2080002494301389 Vminpu=0.8 Vmaxpu=1.2 model=1 kW=3.35003 kvar=0.6802526048837334 Phases=2

New Load.load_p1ulv12542 conn=wye bus1=p1ulv12542.1.2 kV=0.2080002494301389 Vminpu=0.8 Vmaxpu=1.2 model=1 kW=3.37003 kvar=0.6807790649347335 Phases=2

New Load.load_p1ulv12543 conn=wye bus1=p1ulv12543.1.2 kV=0.2080002494301389 Vminpu=0.8 Vmaxpu=1.2 model=1 kW=3.36003 kvar=0.6805230909267135 Phases=2

New Load.load_p1ulv12544 conn=wye bus1=p1ulv12544.1.2 kV=0.2080002494301389 Vminpu=0.8 Vmaxpu=1.2 model=1 kW=3.86004 kvar=0.7797658839270477 Phases=2

New Load.load_p1ulv12545 conn=wye bus1=p1ulv12545.1.2 kV=0.2080002494301389 Vminpu=0.8 Vmaxpu=1.2 model=1 kW=3.49003 kvar=0.7105048699136965 Phases=2

New Load.load_p1ulv12546 conn=wye bus1=p1ulv12546.1.2 kV=0.2080002494301389 Vminpu=0.8 Vmaxpu=1.2 model=1 kW=3.14003 kvar=0.6392514123589496 Phases=2

New Load.load_p1ulv12547 conn=wye bus1=p1ulv12547.1.2 kV=0.2080002494301389 Vminpu=0.8 Vmaxpu=1.2 model=1 kW=3.44003 kvar=0.7003258045487328 Phases=2

New Load.load_p1ulv12548 conn=wye bus1=p1ulv12548.1.2 kV=0.2080002494301389 Vminpu=0.8 Vmaxpu=1.2 model=1 kW=3.42003 kvar=0.6908795546178332 Phases=2

New Load.load_p1ulv12549 conn=wye bus1=p1ulv12549.1.2 kV=0.2080002494301389 Vminpu=0.8 Vmaxpu=1.2 model=1 kW=3.47003 kvar=0.6991539790386396 Phases=2

New Load.load_p1ulv12550 conn=wye bus1=p1ulv12550.1.2 kV=0.2080002494301389 Vminpu=0.8 Vmaxpu=1.2 model=1 kW=3.7100400000000002 kvar=0.7494644148777485 Phases=2

New Load.load_p1ulv12551 conn=wye bus1=p1ulv12550.1.2 kV=0.2080002494301389 Vminpu=0.8 Vmaxpu=1.2 model=1 kW=3.21003 kvar=0.6501428670480555 Phases=2

New Load.load_p1ulv12552 conn=wye bus1=p1ulv12552.1.2 kV=0.2080002494301389 Vminpu=0.8 Vmaxpu=1.2 model=1 kW=3.44003 kvar=0.7003258045487328 Phases=2

New Load.load_p1ulv12553 conn=wye bus1=p1ulv12553.1.2 kV=0.2080002494301389 Vminpu=0.8 Vmaxpu=1.2 model=1 kW=3.59004 kvar=0.7308650364566972 Phases=2

New Load.load_p1ulv12554 conn=wye bus1=p1ulv12554.1.2 kV=0.2080002494301389 Vminpu=0.8 Vmaxpu=1.2 model=1 kW=3.3200300000000005 kvar=0.6706785752516337 Phases=2

New Load.load_p1ulv12971 conn=wye bus1=p1ulv12971.1.2.3 kV=0.48 Vminpu=0.8 Vmaxpu=1.2 model=1 kW=27.190300000000004 kvar=5.521225900236767 Phases=3

New Load.load_p1ulv12974 conn=wye bus1=p1ulv12974.1.2 kV=0.2080002494301389 Vminpu=0.8 Vmaxpu=1.2 model=1 kW=4.19004 kvar=0.8508239104029033 Phases=2

New Load.load_p1ulv12991 conn=wye bus1=p1ulv12991.1.2 kV=0.2080002494301389 Vminpu=0.8 Vmaxpu=1.2 model=1 kW=2.3500200000000007 kvar=0.47964560341312734 Phases=2

New Load.load_p1ulv13014 conn=wye bus1=p1ulv13014.1.2 kV=0.2080002494301389 Vminpu=0.8 Vmaxpu=1.2 model=1 kW=3.87004 kvar=0.7898859035382418 Phases=2

New Load.load_p1ulv13031 conn=wye bus1=p1ulv13031.1.2 kV=0.2080002494301389 Vminpu=0.8 Vmaxpu=1.2 model=1 kW=6.40006 kvar=1.2995876115772655 Phases=2

New Load.load_p1ulv13034 conn=wye bus1=p1ulv13034.1.2 kV=0.2080002494301389 Vminpu=0.8 Vmaxpu=1.2 model=1 kW=13.5401 kvar=2.7494345708504815 Phases=2

New Load.load_p1ulv13055 conn=wye bus1=p1ulv13055.1.2.3 kV=0.48 Vminpu=0.8 Vmaxpu=1.2 model=1 kW=36.2504 kvar=7.36095767144691 Phases=3

New Load.load_p1ulv13059 conn=wye bus1=p1ulv13059.1.2 kV=0.2080002494301389 Vminpu=0.8 Vmaxpu=1.2 model=1 kW=3.90004 kvar=0.7898939222381405 Phases=2

New Load.load_p1ulv13078 conn=wye bus1=p1ulv13078.1.2.3 kV=0.48 Vminpu=0.8 Vmaxpu=1.2 model=1 kW=20.8702 kvar=4.237874859163796 Phases=3

New Load.load_p1ulv13081 conn=wye bus1=p1ulv13081.1.2 kV=0.2080002494301389 Vminpu=0.8 Vmaxpu=1.2 model=1 kW=4.13004 kvar=0.840798942398307 Phases=2

New Load.load_p1ulv13104 conn=wye bus1=p1ulv13104.1.2 kV=0.2080002494301389 Vminpu=0.8 Vmaxpu=1.2 model=1 kW=8.92009 kvar=1.8113015281347753 Phases=2

New Load.load_p1ulv13130 conn=wye bus1=p1ulv13130.1.2 kV=0.2080002494301389 Vminpu=0.8 Vmaxpu=1.2 model=1 kW=5.19005 kvar=1.0511658729428572 Phases=2

New Load.load_p1ulv13150 conn=wye bus1=p1ulv13150.1.2 kV=0.2080002494301389 Vminpu=0.8 Vmaxpu=1.2 model=1 kW=8.27008 kvar=1.679311368136066 Phases=2

New Load.load_p1ulv13178 conn=wye bus1=p1ulv13178.1.2 kV=0.2080002494301389 Vminpu=0.8 Vmaxpu=1.2 model=1 kW=3.82004 kvar=0.7796807647859518 Phases=2

New Load.load_p1ulv13199 conn=wye bus1=p1ulv13199.1.2 kV=0.2080002494301389 Vminpu=0.8 Vmaxpu=1.2 model=1 kW=10.8601 kvar=2.1995484622974195 Phases=2

New Load.load_p1ulv13213 conn=wye bus1=p1ulv13213.1.2 kV=0.2080002494301389 Vminpu=0.8 Vmaxpu=1.2 model=1 kW=5.92006 kvar=1.1990183211672512 Phases=2

New Load.load_p1ulv13240 conn=wye bus1=p1ulv13240.1.2 kV=0.2080002494301389 Vminpu=0.8 Vmaxpu=1.2 model=1 kW=16.2202 kvar=3.2936520872156763 Phases=2

New Load.load_p1ulv13243 conn=wye bus1=p1ulv13243.1.2 kV=0.2080002494301389 Vminpu=0.8 Vmaxpu=1.2 model=1 kW=4.52005 kvar=0.9201976880580982 Phases=2

New Load.load_p1ulv13284 conn=wye bus1=p1ulv13284.1.2 kV=0.2080002494301389 Vminpu=0.8 Vmaxpu=1.2 model=1 kW=6.37006 kvar=1.2901589928032249 Phases=2

New Load.load_p1ulv13287 conn=wye bus1=p1ulv13287.1.2 kV=0.2080002494301389 Vminpu=0.8 Vmaxpu=1.2 model=1 kW=7.90008 kvar=1.600041327062053 Phases=2

New Load.load_p1ulv13307 conn=wye bus1=p1ulv13307.1.2 kV=0.2080002494301389 Vminpu=0.8 Vmaxpu=1.2 model=1 kW=4.81005 kvar=0.9792362671748885 Phases=2

New Load.load_p1ulv13322 conn=wye bus1=p1ulv13322.1.2 kV=0.2080002494301389 Vminpu=0.8 Vmaxpu=1.2 model=1 kW=4.76005 kvar=0.9690572018099246 Phases=2

New Load.load_p1ulv13325 conn=wye bus1=p1ulv13325.1.2 kV=0.2080002494301389 Vminpu=0.8 Vmaxpu=1.2 model=1 kW=4.08004 kvar=0.8306198770333432 Phases=2

New Load.load_p1ulv13373 conn=wye bus1=p1ulv13373.1.2 kV=0.2080002494301389 Vminpu=0.8 Vmaxpu=1.2 model=1 kW=5.18005 kvar=1.0491405246842802 Phases=2

New Load.load_p1ulv13377 conn=wye bus1=p1ulv13377.1.2 kV=0.2080002494301389 Vminpu=0.8 Vmaxpu=1.2 model=1 kW=8.19008 kvar=1.6587764265607916 Phases=2

New Load.load_p1ulv13401 conn=wye bus1=p1ulv13401.1.2 kV=0.2080002494301389 Vminpu=0.8 Vmaxpu=1.2 model=1 kW=4.36004 kvar=0.8898962633106831 Phases=2

New Load.load_p1ulv13422 conn=wye bus1=p1ulv13422.1.2 kV=0.2080002494301389 Vminpu=0.8 Vmaxpu=1.2 model=1 kW=8.28008 kvar=1.6813419547424064 Phases=2

New Load.load_p1ulv13465 conn=wye bus1=p1ulv13465.1.2 kV=0.2080002494301389 Vminpu=0.8 Vmaxpu=1.2 model=1 kW=5.810060000000001 kvar=1.1797830018032032 Phases=2

New Load.load_p1ulv13468 conn=wye bus1=p1ulv13468.1.2 kV=0.2080002494301389 Vminpu=0.8 Vmaxpu=1.2 model=1 kW=2.5300300000000004 kvar=0.5097594376956769 Phases=2

New Load.load_p1ulv13480 conn=wye bus1=p1ulv13480.1.2 kV=0.2080002494301389 Vminpu=0.8 Vmaxpu=1.2 model=1 kW=5.23005 kvar=1.059267265977166 Phases=2

New Load.load_p1ulv13509 conn=wye bus1=p1ulv13509.1.2 kV=0.2080002494301389 Vminpu=0.8 Vmaxpu=1.2 model=1 kW=5.65006 kvar=1.1502466011193542 Phases=2

New Load.load_p1ulv13529 conn=wye bus1=p1ulv13529.1.2 kV=0.2080002494301389 Vminpu=0.8 Vmaxpu=1.2 model=1 kW=3.35003 kvar=0.6802526048837334 Phases=2

New Load.load_p1ulv13532 conn=wye bus1=p1ulv13532.1.2 kV=0.2080002494301389 Vminpu=0.8 Vmaxpu=1.2 model=1 kW=7.95008 kvar=1.6101680683549389 Phases=2

New Load.load_p1ulv13559 conn=wye bus1=p1ulv13559.1.2 kV=0.2080002494301389 Vminpu=0.8 Vmaxpu=1.2 model=1 kW=5.04005 kvar=1.0207856490641993 Phases=2

New Load.load_p1ulv13580 conn=wye bus1=p1ulv13580.1.2.3 kV=0.48 Vminpu=0.8 Vmaxpu=1.2 model=1 kW=27.690300000000004 kvar=5.62275523055377 Phases=3

New Load.load_p1ulv13596 conn=wye bus1=p1ulv13596.1.2 kV=0.2080002494301389 Vminpu=0.8 Vmaxpu=1.2 model=1 kW=3.90004 kvar=0.7898939222381405 Phases=2

New Load.load_p1ulv13628 conn=wye bus1=p1ulv13628.1.2 kV=0.2080002494301389 Vminpu=0.8 Vmaxpu=1.2 model=1 kW=5.55006 kvar=1.1298884703894267 Phases=2

New Load.load_p1ulv13654 conn=wye bus1=p1ulv13654.1.2 kV=0.2080002494301389 Vminpu=0.8 Vmaxpu=1.2 model=1 kW=3.9800400000000002 kvar=0.8102617463034154 Phases=2

New Load.load_p1ulv13671 conn=wye bus1=p1ulv13671.1.2 kV=0.2080002494301389 Vminpu=0.8 Vmaxpu=1.2 model=1 kW=4.06004 kvar=0.8307778611067164 Phases=2

New Load.load_p1ulv13674 conn=wye bus1=p1ulv13674.1.2 kV=0.2080002494301389 Vminpu=0.8 Vmaxpu=1.2 model=1 kW=9.840100000000001 kvar=1.9981175265046658 Phases=2

New Load.load_p1ulv13699 conn=wye bus1=p1ulv13699.1.2 kV=0.2080002494301389 Vminpu=0.8 Vmaxpu=1.2 model=1 kW=5.36005 kvar=1.091205986189491 Phases=2

New Load.load_p1ulv13717 conn=wye bus1=p1ulv13717.1.2 kV=0.2080002494301389 Vminpu=0.8 Vmaxpu=1.2 model=1 kW=5.24005 kvar=1.0612926142357433 Phases=2

New Load.load_p1ulv13720 conn=wye bus1=p1ulv13720.1.2 kV=0.2080002494301389 Vminpu=0.8 Vmaxpu=1.2 model=1 kW=4.06004 kvar=0.8201678426594468 Phases=2

New Load.load_p1ulv13734 conn=wye bus1=p1ulv13734.1.2 kV=0.2080002494301389 Vminpu=0.8 Vmaxpu=1.2 model=1 kW=4.95005 kvar=1.0103189416154545 Phases=2

New Load.load_p1ulv13751 conn=wye bus1=p1ulv13751.1.2 kV=0.2080002494301389 Vminpu=0.8 Vmaxpu=1.2 model=1 kW=6.07006 kvar=1.2293985450459088 Phases=2

New Load.load_p1ulv13776 conn=wye bus1=p1ulv13776.1.2 kV=0.2080002494301389 Vminpu=0.8 Vmaxpu=1.2 model=1 kW=4.07004 kvar=0.8307064585474014 Phases=2

New Load.load_p1ulv13791 conn=wye bus1=p1ulv13791.1.2 kV=0.2080002494301389 Vminpu=0.8 Vmaxpu=1.2 model=1 kW=4.72005 kvar=0.9609139495179535 Phases=2

New Load.load_p1ulv13794 conn=wye bus1=p1ulv13794.1.2 kV=0.2080002494301389 Vminpu=0.8 Vmaxpu=1.2 model=1 kW=6.67007 kvar=1.3613797967497288 Phases=2

New Load.load_p1ulv13818 conn=wye bus1=p1ulv13818.1.2.3 kV=0.48 Vminpu=0.8 Vmaxpu=1.2 model=1 kW=34.3803 kvar=6.981217670195257 Phases=3

New Load.load_p1ulv13821 conn=wye bus1=p1ulv13821.1.2 kV=0.2080002494301389 Vminpu=0.8 Vmaxpu=1.2 model=1 kW=3.66004 kvar=0.7393639251946486 Phases=2

New Load.load_p1ulv13842 conn=wye bus1=p1ulv13842.1.2 kV=0.2080002494301389 Vminpu=0.8 Vmaxpu=1.2 model=1 kW=18.0602 kvar=3.667280022782244 Phases=2

New Load.load_p1ulv13867 conn=wye bus1=p1ulv13867.1.2 kV=0.2080002494301389 Vminpu=0.8 Vmaxpu=1.2 model=1 kW=3.95004 kvar=0.8000206635310265 Phases=2

New Load.load_p1ulv13885 conn=wye bus1=p1ulv13885.1.2 kV=0.2080002494301389 Vminpu=0.8 Vmaxpu=1.2 model=1 kW=3.87004 kvar=0.7898859035382418 Phases=2

New Load.load_p1ulv13888 conn=wye bus1=p1ulv13888.1.2 kV=0.2080002494301389 Vminpu=0.8 Vmaxpu=1.2 model=1 kW=4.51005 kvar=0.9205137205953031 Phases=2

New Load.load_p1ulv13903 conn=wye bus1=p1ulv13903.1.2 kV=0.2080002494301389 Vminpu=0.8 Vmaxpu=1.2 model=1 kW=3.79004 kvar=0.7696004461493017 Phases=2

New Load.load_p1ulv13910 conn=wye bus1=p1ulv13910.1.2 kV=0.2080002494301389 Vminpu=0.8 Vmaxpu=1.2 model=1 kW=2.87003 kvar=0.5797741681037358 Phases=2

New Load.load_p1ulv13914 conn=wye bus1=p1ulv13914.1.2.3 kV=0.48 Vminpu=0.8 Vmaxpu=1.2 model=1 kW=45.5605 kvar=9.251454107815553 Phases=3

New Load.load_p1ulv13916 conn=wye bus1=p1ulv13916.1.2 kV=0.2080002494301389 Vminpu=0.8 Vmaxpu=1.2 model=1 kW=5.24005 kvar=1.0612926142357433 Phases=2

New Load.load_p1ulv13930 conn=wye bus1=p1ulv13930.1.2 kV=0.2080002494301389 Vminpu=0.8 Vmaxpu=1.2 model=1 kW=4.31004 kvar=0.8796911245583932 Phases=2

New Load.load_p1ulv13955 conn=wye bus1=p1ulv13955.1.2 kV=0.2080002494301389 Vminpu=0.8 Vmaxpu=1.2 model=1 kW=5.96006 kvar=1.2102418008983036 Phases=2

New Load.load_p1ulv13965 conn=wye bus1=p1ulv13965.1.2 kV=0.2080002494301389 Vminpu=0.8 Vmaxpu=1.2 model=1 kW=3.35003 kvar=0.6802526048837334 Phases=2

New Load.load_p1ulv13986 conn=wye bus1=p1ulv13986.1.2 kV=0.2080002494301389 Vminpu=0.8 Vmaxpu=1.2 model=1 kW=3.86004 kvar=0.7797658839270477 Phases=2

New Load.load_p1ulv13989 conn=wye bus1=p1ulv13989.1.2 kV=0.2080002494301389 Vminpu=0.8 Vmaxpu=1.2 model=1 kW=3.89004 kvar=0.789906312212702 Phases=2

New Load.load_p1ulv14004 conn=wye bus1=p1ulv14004.1.2 kV=0.2080002494301389 Vminpu=0.8 Vmaxpu=1.2 model=1 kW=4.28004 kvar=0.8690991898599637 Phases=2

New Load.load_p1ulv14015 conn=wye bus1=p1ulv14015.1.2 kV=0.2080002494301389 Vminpu=0.8 Vmaxpu=1.2 model=1 kW=15.730200000000002 kvar=3.2023746800790915 Phases=2

New Load.load_p1ulv14037 conn=wye bus1=p1ulv14037.1.2 kV=0.2080002494301389 Vminpu=0.8 Vmaxpu=1.2 model=1 kW=4.50005 kvar=0.9090541719686612 Phases=2

New Load.load_p1ulv14075 conn=wye bus1=p1ulv14075.1.2 kV=0.2080002494301389 Vminpu=0.8 Vmaxpu=1.2 model=1 kW=5.15005 kvar=1.0511394966246144 Phases=2

New Load.load_p1ulv14078 conn=wye bus1=p1ulv14078.1.2 kV=0.2080002494301389 Vminpu=0.8 Vmaxpu=1.2 model=1 kW=7.68008 kvar=1.5595067583620035 Phases=2

New Load.load_p1ulv14105 conn=wye bus1=p1ulv14105.1.2 kV=0.2080002494301389 Vminpu=0.8 Vmaxpu=1.2 model=1 kW=2.77003 kvar=0.5595731887375364 Phases=2

New Load.load_p1ulv14123 conn=wye bus1=p1ulv14123.1.2 kV=0.2080002494301389 Vminpu=0.8 Vmaxpu=1.2 model=1 kW=4.85005 kvar=0.9899086641108747 Phases=2

New Load.load_p1ulv14136 conn=wye bus1=p1ulv14136.1.2 kV=0.2080002494301389 Vminpu=0.8 Vmaxpu=1.2 model=1 kW=4.91005 kvar=0.9995943979048163 Phases=2

New Load.load_p1ulv14647 conn=wye bus1=p1ulv14647.1.2 kV=0.2080002494301389 Vminpu=0.8 Vmaxpu=1.2 model=1 kW=4.00004 kvar=0.8101474048239126 Phases=2

New Load.load_p1ulv14651 conn=wye bus1=p1ulv14651.1.2 kV=0.2080002494301389 Vminpu=0.8 Vmaxpu=1.2 model=1 kW=7.070070000000001 kvar=1.4393340932974013 Phases=2

New Load.load_p1ulv14671 conn=wye bus1=p1ulv14671.1.2 kV=0.2080002494301389 Vminpu=0.8 Vmaxpu=1.2 model=1 kW=3.57004 kvar=0.7305125553603958 Phases=2

New Load.load_p1ulv14683 conn=wye bus1=p1ulv14683.1.2 kV=0.2080002494301389 Vminpu=0.8 Vmaxpu=1.2 model=1 kW=5.79006 kvar=1.1696488258905717 Phases=2

New Load.load_p1ulv14694 conn=wye bus1=p1ulv14694.1.2 kV=0.2080002494301389 Vminpu=0.8 Vmaxpu=1.2 model=1 kW=4.17004 kvar=0.8489421946902781 Phases=2

New Load.load_p1ulv14712 conn=wye bus1=p1ulv14712.1.2 kV=0.2080002494301389 Vminpu=0.8 Vmaxpu=1.2 model=1 kW=4.42004 kvar=0.8998375215150975 Phases=2

New Load.load_p1ulv14754 conn=wye bus1=p1ulv14754.1.2 kV=0.2080002494301389 Vminpu=0.8 Vmaxpu=1.2 model=1 kW=3.91004 kvar=0.7898663736101474 Phases=2

New Load.load_p1ulv14811 conn=wye bus1=p1ulv14811.1.2 kV=0.2080002494301389 Vminpu=0.8 Vmaxpu=1.2 model=1 kW=4.03004 kvar=0.8204408116683792 Phases=2

New Load.load_p1ulv14814 conn=wye bus1=p1ulv14814.1.2 kV=0.2080002494301389 Vminpu=0.8 Vmaxpu=1.2 model=1 kW=3.76004 kvar=0.7595649045608481 Phases=2

New Load.load_p1ulv14837 conn=wye bus1=p1ulv14837.1.2 kV=0.2080002494301389 Vminpu=0.8 Vmaxpu=1.2 model=1 kW=5.460050000000001 kvar=1.1087104399946952 Phases=2

New Load.load_p1ulv14856 conn=wye bus1=p1ulv14856.1.2 kV=0.2080002494301389 Vminpu=0.8 Vmaxpu=1.2 model=1 kW=5.420050000000001 kvar=1.1005880935693348 Phases=2

New Load.load_p1ulv14859 conn=wye bus1=p1ulv14859.1.2 kV=0.2080002494301389 Vminpu=0.8 Vmaxpu=1.2 model=1 kW=8.13008 kvar=1.6508831556473056 Phases=2

New Load.load_p1ulv14882 conn=wye bus1=p1ulv14882.1.2 kV=0.2080002494301389 Vminpu=0.8 Vmaxpu=1.2 model=1 kW=5.090050000000001 kvar=1.0309123903570856 Phases=2

New Load.load_p1ulv14899 conn=wye bus1=p1ulv14899.1.2 kV=0.2080002494301389 Vminpu=0.8 Vmaxpu=1.2 model=1 kW=4.93005 kvar=1.0010893498586726 Phases=2

New Load.load_p1ulv14930 conn=wye bus1=p1ulv14930.1.2 kV=0.2080002494301389 Vminpu=0.8 Vmaxpu=1.2 model=1 kW=6.71007 kvar=1.3590228589431081 Phases=2

New Load.load_p1ulv14966 conn=wye bus1=p1ulv14966.1.2 kV=0.2080002494301389 Vminpu=0.8 Vmaxpu=1.2 model=1 kW=4.62005 kvar=0.940555818788026 Phases=2

New Load.load_p1ulv14976 conn=wye bus1=p1ulv14976.1.2.3 kV=0.48 Vminpu=0.8 Vmaxpu=1.2 model=1 kW=28.420300000000005 kvar=5.770988052816592 Phases=3

New Load.load_p1ulv14996 conn=wye bus1=p1ulv14996.1.2 kV=0.2080002494301389 Vminpu=0.8 Vmaxpu=1.2 model=1 kW=4.15004 kvar=0.8405276287025704 Phases=2

New Load.load_p1ulv15002 conn=wye bus1=p1ulv15002.1.2 kV=0.2080002494301389 Vminpu=0.8 Vmaxpu=1.2 model=1 kW=4.62005 kvar=0.940555818788026 Phases=2

New Load.load_p1ulv15005 conn=wye bus1=p1ulv15005.1.2 kV=0.2080002494301389 Vminpu=0.8 Vmaxpu=1.2 model=1 kW=2.24002 kvar=0.4595226532057354 Phases=2

New Load.load_p1ulv15031 conn=wye bus1=p1ulv15031.1.2 kV=0.2080002494301389 Vminpu=0.8 Vmaxpu=1.2 model=1 kW=5.67006 kvar=1.1513547893144422 Phases=2

New Load.load_p1ulv15051 conn=wye bus1=p1ulv15051.1.2.3 kV=0.48 Vminpu=0.8 Vmaxpu=1.2 model=1 kW=39.1204 kvar=7.9437360274665005 Phases=3

New Load.load_p1ulv15096 conn=wye bus1=p1ulv15096.1.2 kV=0.2080002494301389 Vminpu=0.8 Vmaxpu=1.2 model=1 kW=4.50005 kvar=0.9090541719686612 Phases=2

New Load.load_p1ulv15138 conn=wye bus1=p1ulv15138.1.2 kV=0.2080002494301389 Vminpu=0.8 Vmaxpu=1.2 model=1 kW=2.88003 kvar=0.5802786818127376 Phases=2

New Load.load_p1ulv15141 conn=wye bus1=p1ulv15141.1.2 kV=0.2080002494301389 Vminpu=0.8 Vmaxpu=1.2 model=1 kW=13.0601 kvar=2.65196641374616 Phases=2

New Load.load_p1ulv15163 conn=wye bus1=p1ulv15163.1.2.3 kV=0.48 Vminpu=0.8 Vmaxpu=1.2 model=1 kW=37.6204 kvar=7.639148036515493 Phases=3

New Load.load_p1ulv15166 conn=wye bus1=p1ulv15166.1.2 kV=0.2080002494301389 Vminpu=0.8 Vmaxpu=1.2 model=1 kW=5.48005 kvar=1.109900972441596 Phases=2

New Load.load_p1ulv15188 conn=wye bus1=p1ulv15188.1.2 kV=0.2080002494301389 Vminpu=0.8 Vmaxpu=1.2 model=1 kW=15.8602 kvar=3.2205509693874346 Phases=2

New Load.load_p1ulv15200 conn=wye bus1=p1ulv15200.1.2 kV=0.2080002494301389 Vminpu=0.8 Vmaxpu=1.2 model=1 kW=4.2400400000000005 kvar=0.8609768434346036 Phases=2

New Load.load_p1ulv15209 conn=wye bus1=p1ulv15209.1.2 kV=0.2080002494301389 Vminpu=0.8 Vmaxpu=1.2 model=1 kW=9.21009 kvar=1.8701885397186364 Phases=2

New Load.load_p1ulv15248 conn=wye bus1=p1ulv15248.1.2 kV=0.2080002494301389 Vminpu=0.8 Vmaxpu=1.2 model=1 kW=8.03008 kvar=1.630577289583905 Phases=2

New Load.load_p1ulv15275 conn=wye bus1=p1ulv15275.1.2 kV=0.2080002494301389 Vminpu=0.8 Vmaxpu=1.2 model=1 kW=5.43005 kvar=1.0997742311487098 Phases=2

New Load.load_p1ulv15293 conn=wye bus1=p1ulv15293.1.2 kV=0.2080002494301389 Vminpu=0.8 Vmaxpu=1.2 model=1 kW=6.69007 kvar=1.358476653747733 Phases=2

New Load.load_p1ulv15296 conn=wye bus1=p1ulv15296.1.2 kV=0.2080002494301389 Vminpu=0.8 Vmaxpu=1.2 model=1 kW=4.69005 kvar=0.9498984600139976 Phases=2

New Load.load_p1ulv15318 conn=wye bus1=p1ulv15318.1.2 kV=0.2080002494301389 Vminpu=0.8 Vmaxpu=1.2 model=1 kW=3.0700300000000005 kvar=0.620176126836135 Phases=2

New Load.load_p1ulv15337 conn=wye bus1=p1ulv15337.1.2 kV=0.2080002494301389 Vminpu=0.8 Vmaxpu=1.2 model=1 kW=3.89004 kvar=0.789906312212702 Phases=2

New Load.load_p1ulv15339 conn=wye bus1=p1ulv15339.1.2 kV=0.2080002494301389 Vminpu=0.8 Vmaxpu=1.2 model=1 kW=4.13004 kvar=0.840798942398307 Phases=2

New Load.load_p1ulv15353 conn=wye bus1=p1ulv15353.1.2 kV=0.2080002494301389 Vminpu=0.8 Vmaxpu=1.2 model=1 kW=4.83005 kvar=0.9807834837952725 Phases=2

New Load.load_p1ulv15376 conn=wye bus1=p1ulv15376.1.2 kV=0.2080002494301389 Vminpu=0.8 Vmaxpu=1.2 model=1 kW=5.00005 kvar=1.0205240803677447 Phases=2

New Load.load_p1ulv15380 conn=wye bus1=p1ulv15380.1.2 kV=0.2080002494301389 Vminpu=0.8 Vmaxpu=1.2 model=1 kW=8.25008 kvar=1.6795620717236213 Phases=2

New Load.load_p1ulv15404 conn=wye bus1=p1ulv15404.1.2 kV=0.2080002494301389 Vminpu=0.8 Vmaxpu=1.2 model=1 kW=4.71005 kvar=0.9588781364449609 Phases=2

New Load.load_p1ulv15453 conn=wye bus1=p1ulv15453.1.2 kV=0.2080002494301389 Vminpu=0.8 Vmaxpu=1.2 model=1 kW=4.40004 kvar=0.8911613351670004 Phases=2

New Load.load_p1ulv15470 conn=wye bus1=p1ulv15470.1.2 kV=0.2080002494301389 Vminpu=0.8 Vmaxpu=1.2 model=1 kW=4.34004 kvar=0.8790092456155372 Phases=2

New Load.load_p1ulv15479 conn=wye bus1=p1ulv15479.1.2 kV=0.2080002494301389 Vminpu=0.8 Vmaxpu=1.2 model=1 kW=7.54008 kvar=1.531078545873243 Phases=2

New Load.load_p1ulv15527 conn=wye bus1=p1ulv15527.1.2 kV=0.2080002494301389 Vminpu=0.8 Vmaxpu=1.2 model=1 kW=2.7800300000000004 kvar=0.5601303263507202 Phases=2

New Load.load_p1ulv15544 conn=wye bus1=p1ulv15544.1.2 kV=0.2080002494301389 Vminpu=0.8 Vmaxpu=1.2 model=1 kW=4.77005 kvar=0.9710930148829175 Phases=2

New Load.load_p1ulv15547 conn=wye bus1=p1ulv15547.1.2 kV=0.2080002494301389 Vminpu=0.8 Vmaxpu=1.2 model=1 kW=9.5301 kvar=1.940150216692842 Phases=2

New Load.load_p1ulv15569 conn=wye bus1=p1ulv15569.1.2 kV=0.2080002494301389 Vminpu=0.8 Vmaxpu=1.2 model=1 kW=2.65003 kvar=0.5394965717823037 Phases=2

New Load.load_p1ulv15573 conn=wye bus1=p1ulv15573.1.2 kV=0.2080002494301389 Vminpu=0.8 Vmaxpu=1.2 model=1 kW=6.13006 kvar=1.2415506345973724 Phases=2

New Load.load_p1ulv15594 conn=wye bus1=p1ulv15594.1.2 kV=0.2080002494301389 Vminpu=0.8 Vmaxpu=1.2 model=1 kW=14.000100000000002 kvar=2.8428415547421237 Phases=2

New Load.load_p1ulv15606 conn=wye bus1=p1ulv15606.1.2 kV=0.2080002494301389 Vminpu=0.8 Vmaxpu=1.2 model=1 kW=5.00005 kvar=1.0205240803677447 Phases=2

New Load.load_p1ulv15616 conn=wye bus1=p1ulv15616.1.2 kV=0.2080002494301389 Vminpu=0.8 Vmaxpu=1.2 model=1 kW=4.75005 kvar=0.969498386606295 Phases=2

New Load.load_p1ulv15630 conn=wye bus1=p1ulv15630.1.2 kV=0.2080002494301389 Vminpu=0.8 Vmaxpu=1.2 model=1 kW=4.13004 kvar=0.840798942398307 Phases=2

New Load.load_p1ulv15647 conn=wye bus1=p1ulv15647.1.2 kV=0.2080002494301389 Vminpu=0.8 Vmaxpu=1.2 model=1 kW=4.39004 kvar=0.8891359869084231 Phases=2

New Load.load_p1ulv15650 conn=wye bus1=p1ulv15650.1.2 kV=0.2080002494301389 Vminpu=0.8 Vmaxpu=1.2 model=1 kW=7.85008 kvar=1.5899145857691672 Phases=2

New Load.load_p1ulv15679 conn=wye bus1=p1ulv15679.1.2 kV=0.2080002494301389 Vminpu=0.8 Vmaxpu=1.2 model=1 kW=3.86004 kvar=0.7797658839270477 Phases=2

New Load.load_p1ulv15699 conn=wye bus1=p1ulv15699.1.2 kV=0.2080002494301389 Vminpu=0.8 Vmaxpu=1.2 model=1 kW=18.8302 kvar=3.823635191470428 Phases=2

New Load.load_p1ulv15712 conn=wye bus1=p1ulv15712.1.2 kV=0.2080002494301389 Vminpu=0.8 Vmaxpu=1.2 model=1 kW=4.39004 kvar=0.8891359869084231 Phases=2

New Load.load_p1ulv15722 conn=wye bus1=p1ulv15722.1.2 kV=0.2080002494301389 Vminpu=0.8 Vmaxpu=1.2 model=1 kW=6.21006 kvar=1.2610064660568046 Phases=2

New Load.load_p1ulv15743 conn=wye bus1=p1ulv15743.1.2 kV=0.2080002494301389 Vminpu=0.8 Vmaxpu=1.2 model=1 kW=4.89005 kvar=0.9904054251855413 Phases=2

New Load.load_p1ulv15766 conn=wye bus1=p1ulv15766.1.2 kV=0.2080002494301389 Vminpu=0.8 Vmaxpu=1.2 model=1 kW=5.79006 kvar=1.1787479841412536 Phases=2

New Load.load_p1ulv15781 conn=wye bus1=p1ulv15781.1.2 kV=0.2080002494301389 Vminpu=0.8 Vmaxpu=1.2 model=1 kW=4.89005 kvar=0.9904054251855413 Phases=2

New Load.load_p1ulv15784 conn=wye bus1=p1ulv15784.1.2 kV=0.2080002494301389 Vminpu=0.8 Vmaxpu=1.2 model=1 kW=8.33008 kvar=1.6914948877741063 Phases=2

New Load.load_p1ulv15807 conn=wye bus1=p1ulv15807.1.2 kV=0.2080002494301389 Vminpu=0.8 Vmaxpu=1.2 model=1 kW=4.15004 kvar=0.8405276287025704 Phases=2

New Load.load_p1ulv15825 conn=wye bus1=p1ulv15825.1.2 kV=0.2080002494301389 Vminpu=0.8 Vmaxpu=1.2 model=1 kW=5.04005 kvar=1.0207856490641993 Phases=2

New Load.load_p1ulv16433 conn=wye bus1=p1ulv16433.1.2 kV=0.2080002494301389 Vminpu=0.8 Vmaxpu=1.2 model=1 kW=2.17002 kvar=0.4395046228077686 Phases=2

New Load.load_p1ulv16436 conn=wye bus1=p1ulv16436.1.2 kV=0.2080002494301389 Vminpu=0.8 Vmaxpu=1.2 model=1 kW=3.39003 kvar=0.6901467391837689 Phases=2

New Load.load_p1ulv16477 conn=wye bus1=p1ulv16477.1.2 kV=0.2080002494301389 Vminpu=0.8 Vmaxpu=1.2 model=1 kW=7.89008 kvar=1.5980159788034758 Phases=2

New Load.load_p1ulv16502 conn=wye bus1=p1ulv16502.1.2 kV=0.2080002494301389 Vminpu=0.8 Vmaxpu=1.2 model=1 kW=4.840050000000001 kvar=0.9802786838926555 Phases=2

New Load.load_p1ulv16521 conn=wye bus1=p1ulv16521.1.2 kV=0.2080002494301389 Vminpu=0.8 Vmaxpu=1.2 model=1 kW=4.79005 kvar=0.9701519425997696 Phases=2

New Load.load_p1ulv16524 conn=wye bus1=p1ulv16524.1.2 kV=0.2080002494301389 Vminpu=0.8 Vmaxpu=1.2 model=1 kW=4.73005 kvar=0.960477617731872 Phases=2

New Load.load_p1ulv16537 conn=wye bus1=p1ulv16537.1.2 kV=0.2080002494301389 Vminpu=0.8 Vmaxpu=1.2 model=1 kW=4.35004 kvar=0.8810345938741143 Phases=2

New Load.load_p1ulv16546 conn=wye bus1=p1ulv16546.1.2.3 kV=0.48 Vminpu=0.8 Vmaxpu=1.2 model=1 kW=52.5405 kvar=10.668803559040901 Phases=3

New Load.load_p1ulv16566 conn=wye bus1=p1ulv16566.1.2 kV=0.2080002494301389 Vminpu=0.8 Vmaxpu=1.2 model=1 kW=4.87005 kvar=0.9889058302206326 Phases=2

New Load.load_p1ulv16594 conn=wye bus1=p1ulv16594.1.2 kV=0.2080002494301389 Vminpu=0.8 Vmaxpu=1.2 model=1 kW=6.09006 kvar=1.2398223763310365 Phases=2

New Load.load_p1ulv16615 conn=wye bus1=p1ulv16615.1.2 kV=0.2080002494301389 Vminpu=0.8 Vmaxpu=1.2 model=1 kW=9.6201 kvar=1.948405278233848 Phases=2

New Load.load_p1ulv16638 conn=wye bus1=p1ulv16638.1.2 kV=0.2080002494301389 Vminpu=0.8 Vmaxpu=1.2 model=1 kW=3.61004 kvar=0.7292634355115489 Phases=2

New Load.load_p1ulv16642 conn=wye bus1=p1ulv16642.1.2 kV=0.2080002494301389 Vminpu=0.8 Vmaxpu=1.2 model=1 kW=2.63003 kvar=0.5299077931576943 Phases=2

New Load.load_p1ulv16662 conn=wye bus1=p1ulv16662.1.2 kV=0.2080002494301389 Vminpu=0.8 Vmaxpu=1.2 model=1 kW=4.79005 kvar=0.9701519425997696 Phases=2

New Load.load_p1ulv16677 conn=wye bus1=p1ulv16677.1.2 kV=0.2080002494301389 Vminpu=0.8 Vmaxpu=1.2 model=1 kW=9.02009 kvar=1.8316073941981759 Phases=2

New Load.load_p1ulv16687 conn=wye bus1=p1ulv16687.1.2 kV=0.2080002494301389 Vminpu=0.8 Vmaxpu=1.2 model=1 kW=3.70004 kvar=0.7493869570665965 Phases=2

New Load.load_p1ulv16699 conn=wye bus1=p1ulv16699.1.2 kV=0.2080002494301389 Vminpu=0.8 Vmaxpu=1.2 model=1 kW=6.08006 kvar=1.231423893304486 Phases=2

New Load.load_p1ulv16718 conn=wye bus1=p1ulv16718.1.2 kV=0.2080002494301389 Vminpu=0.8 Vmaxpu=1.2 model=1 kW=4.37004 kvar=0.8896584561501336 Phases=2

New Load.load_p1ulv16720 conn=wye bus1=p1ulv16720.1.2 kV=0.2080002494301389 Vminpu=0.8 Vmaxpu=1.2 model=1 kW=10.010100000000001 kvar=2.0326374988124463 Phases=2

New Load.load_p1ulv16742 conn=wye bus1=p1ulv16742.1.2 kV=0.2080002494301389 Vminpu=0.8 Vmaxpu=1.2 model=1 kW=15.5002 kvar=3.1474498515591933 Phases=2

New Load.load_p1ulv16745 conn=wye bus1=p1ulv16745.1.2 kV=0.2080002494301389 Vminpu=0.8 Vmaxpu=1.2 model=1 kW=4.34004 kvar=0.8790092456155372 Phases=2

New Load.load_p1ulv16765 conn=wye bus1=p1ulv16765.1.2 kV=0.2080002494301389 Vminpu=0.8 Vmaxpu=1.2 model=1 kW=5.04005 kvar=1.0207856490641993 Phases=2

New Load.load_p1ulv16768 conn=wye bus1=p1ulv16768.1.2.3 kV=0.48 Vminpu=0.8 Vmaxpu=1.2 model=1 kW=302.783 kvar=61.48271044274572 Phases=3

New Load.load_p1ulv16792 conn=wye bus1=p1ulv16792.1.2 kV=0.2080002494301389 Vminpu=0.8 Vmaxpu=1.2 model=1 kW=8.09008 kvar=1.6385229439750197 Phases=2

New Load.load_p1ulv16813 conn=wye bus1=p1ulv16813.1.2 kV=0.2080002494301389 Vminpu=0.8 Vmaxpu=1.2 model=1 kW=4.39004 kvar=0.8891359869084231 Phases=2

New Load.load_p1ulv16850 conn=wye bus1=p1ulv16850.1.2 kV=0.2080002494301389 Vminpu=0.8 Vmaxpu=1.2 model=1 kW=4.10004 kvar=0.8304008874096844 Phases=2

New Load.load_p1ulv16877 conn=wye bus1=p1ulv16877.1.2 kV=0.2080002494301389 Vminpu=0.8 Vmaxpu=1.2 model=1 kW=2.25002 kvar=0.46040600660272657 Phases=2

New Load.load_p1ulv16893 conn=wye bus1=p1ulv16893.1.2 kV=0.2080002494301389 Vminpu=0.8 Vmaxpu=1.2 model=1 kW=3.60004 kvar=0.7291334744808246 Phases=2

New Load.load_p1ulv16914 conn=wye bus1=p1ulv16914.1.2 kV=0.2080002494301389 Vminpu=0.8 Vmaxpu=1.2 model=1 kW=3.14003 kvar=0.6392514123589496 Phases=2

New Load.load_p1ulv16917 conn=wye bus1=p1ulv16917.1.2 kV=0.2080002494301389 Vminpu=0.8 Vmaxpu=1.2 model=1 kW=4.06004 kvar=0.8201678426594468 Phases=2

New Load.load_p1ulv16940 conn=wye bus1=p1ulv16940.1.2 kV=0.2080002494301389 Vminpu=0.8 Vmaxpu=1.2 model=1 kW=4.50005 kvar=0.9090541719686612 Phases=2

New Load.load_p1ulv16958 conn=wye bus1=p1ulv16958.1.2 kV=0.2080002494301389 Vminpu=0.8 Vmaxpu=1.2 model=1 kW=4.840050000000001 kvar=0.9802786838926555 Phases=2

New Load.load_p1ulv16985 conn=wye bus1=p1ulv16985.1.2 kV=0.2080002494301389 Vminpu=0.8 Vmaxpu=1.2 model=1 kW=4.16004 kvar=0.8403688220256462 Phases=2

New Load.load_p1ulv17003 conn=wye bus1=p1ulv17003.1.2 kV=0.2080002494301389 Vminpu=0.8 Vmaxpu=1.2 model=1 kW=4.72005 kvar=0.9609139495179535 Phases=2

New Load.load_p1ulv17006 conn=wye bus1=p1ulv17006.1.2 kV=0.2080002494301389 Vminpu=0.8 Vmaxpu=1.2 model=1 kW=8.69009 kvar=1.7691398827483764 Phases=2

New Load.load_p1ulv17032 conn=wye bus1=p1ulv17032.1.2 kV=0.2080002494301389 Vminpu=0.8 Vmaxpu=1.2 model=1 kW=1.83002 kvar=0.3696819625973243 Phases=2

...